Version 4
SHEET 1 1200 680
WIRE -496 -288 -784 -288
WIRE 896 -288 464 -288
WIRE 896 -272 896 -288
WIRE -784 -256 -784 -288
WIRE -496 -208 -496 -288
WIRE -448 -208 -496 -208
WIRE 464 -208 464 -288
WIRE 464 -208 -320 -208
WIRE 576 -176 288 -176
WIRE 720 -176 576 -176
WIRE -784 -160 -784 -176
WIRE -448 -160 -784 -160
WIRE -192 -160 -320 -160
WIRE -784 -128 -784 -160
WIRE 576 -96 576 -176
WIRE 720 -96 720 -176
WIRE 464 0 464 -208
WIRE 288 16 288 -176
WIRE 432 16 288 16
WIRE 576 32 576 -32
WIRE 576 32 496 32
WIRE 720 32 720 -16
WIRE 720 32 576 32
WIRE 784 32 720 32
WIRE 944 32 864 32
WIRE 1040 32 944 32
WIRE -304 48 -416 48
WIRE -192 48 -192 -160
WIRE -192 48 -240 48
WIRE -176 48 -192 48
WIRE -32 48 -96 48
WIRE 128 48 -32 48
WIRE 400 48 128 48
WIRE 432 48 400 48
WIRE -416 96 -416 48
WIRE 944 112 944 32
WIRE -32 128 -32 48
WIRE 128 128 128 48
WIRE 288 128 288 16
WIRE -416 192 -416 176
WIRE -32 272 -32 192
WIRE 128 272 128 208
WIRE 128 272 -32 272
WIRE 288 272 288 208
WIRE 288 272 128 272
WIRE 464 272 464 64
WIRE 464 272 288 272
WIRE 944 272 944 176
WIRE 944 272 464 272
WIRE 464 288 464 272
WIRE 944 288 944 272
FLAG 464 288 0
FLAG 944 288 0
FLAG 1040 32 ADC
FLAG -416 192 0
FLAG 896 -192 0
FLAG 400 48 I_in+
FLAG -784 -128 0
SYMBOL res 112 112 R0
SYMATTR InstName R1
SYMATTR Value 100k
SYMBOL res 272 112 R0
SYMATTR InstName R2
SYMATTR Value 1k
SYMBOL cap -48 128 R0
SYMATTR InstName C1
SYMATTR Value 100n
SYMBOL res -80 32 R90
WINDOW 0 0 56 VBottom 2
WINDOW 3 32 56 VTop 2
SYMATTR InstName R5
SYMATTR Value 10k
SYMBOL Opamps\\LTC1050 464 -32 R0
SYMATTR InstName U1
SYMBOL cap 560 -96 R0
WINDOW 3 24 36 Left 2
SYMATTR InstName C4
SYMATTR Value 1µ
SYMBOL res 704 -112 R0
SYMATTR InstName R3
SYMATTR Value 100k
SYMBOL res 880 16 R90
WINDOW 0 0 56 VBottom 2
WINDOW 3 32 56 VTop 2
SYMATTR InstName R6
SYMATTR Value 1k
SYMBOL cap 928 112 R0
WINDOW 3 24 36 Left 2
SYMATTR InstName C2
SYMATTR Value 100n
SYMBOL voltage 896 -288 R0
WINDOW 123 0 0 Left 0
WINDOW 39 24 44 Left 2
SYMATTR SpiceLine Rser=0
SYMATTR InstName V1
SYMATTR Value 5
SYMBOL voltage -416 80 R0
WINDOW 123 0 0 Left 0
WINDOW 39 0 0 Left 0
SYMATTR InstName V2
SYMATTR Value SINE(0 325 50)
SYMBOL cap -240 32 R90
WINDOW 0 0 32 VBottom 2
WINDOW 3 32 32 VTop 2
SYMATTR InstName C5
SYMATTR Value 1p
SYMBOL capteur_de_gaz_LTSpice -336 -176 R0
SYMATTR InstName X1
SYMBOL voltage -784 -272 R0
WINDOW 123 0 0 Left 0
WINDOW 39 0 0 Left 0
SYMATTR InstName V3
SYMATTR Value PULSE(0 1 0.2 0.1 0.1 20)
TEXT 264 -328 Left 2 !.tran 2
TEXT 264 -376 Left 2 !;ac dec 100 1 1000k
TEXT -536 -440 Left 2 ;On a Rcap= (R1/R2) * (R2+R3) * (Vcc/Vadc)  - R1 - R5\nà une fréquence qui elimine les capas
